
.subckt DESIGN_icn_ckt 1 2 
* Display all elements first 
RidlPart_10 1 3 3.000000e+01
TidlPart_54 2 0 3 0 z0=50 Td=1e-08 R=1e-5 
.ends DESIGN_icn_ckt
