
*** Printing Custom Stimuli ***

.subckt DESIGN.IO2.1_stim 5 4 3
v_5 5 3 0
v_4 4 3 1
.ends DESIGN.IO2.1_stim

*** Printing Custom Stimuli ***

.subckt DESIGN.IO1.1_stim 5 4 3
v_5 5 3 1 (DC ..)

v_4 4 3  PWL (0 1 8.00285e-09 1.0 8.75285e-09 0 3.1997e-08 0 3.31937e-08 1.0 4.00012e-08 1.0 4.07512e-08 0 4.79988e-08 0 4.91954e-08 1.0 5.59976e-08 1.0 5.67476e-08 0 6.40012e-08 0 6.51979e-08 1.0 7.19987e-08 1.0 7.27487e-08 0 9.60001e-08 0 9.71967e-08 1.0 1.04e-07 1.0 1.0475e-07 0 1.2e-07 0 1.21197e-07 1.0 1.27999e-07 1.0 1.28749e-07 0 1.51998e-07 0 1.53195e-07 1.0 1.75999e-07 1.0 1.76749e-07 0 1.84003e-07 0 1.85199e-07 1.0 1.92003e-07 1.0 1.92753e-07 0 2.00001e-07 0 2.01198e-07 1.0 2.15997e-07 1.0 2.16747e-07 0 2.24001e-07 0 2.25198e-07 1.0 2.32e-07 1.0 2.3275e-07 0 2.48001e-07 0 2.49198e-07 1.0 2.55998e-07 1.0 2.56748e-07 0 2.71998e-07 0 2.73194e-07 1.0 2.8e-07 1.0 2.8075e-07 0 2.88001e-07 0 2.89198e-07 1.0 2.95998e-07 1.0 2.96748e-07 0 3.04001e-07 0 3.05197e-07 1.0 3.12e-07 1.0 3.1275e-07 0 3.20002e-07 0 3.21198e-07 1.0 3.27997e-07 1.0 3.28747e-07 0 3.36001e-07 0 3.37197e-07 1.0 3.44e-07 1.0 3.4475e-07 0 3.6e-07 0 3.61197e-07 1.0 3.67999e-07 1.0 3.68749e-07 0 3.75999e-07 0 3.77196e-07 1.0 3.84003e-07 1.0 3.84753e-07 0 3.91999e-07 0 3.93196e-07 1.0 3.99996e-07 1.0 4.00746e-07 0 4.08003e-07 0 4.092e-07 1.0 4.15998e-07 1.0 4.16748e-07 0 4.23999e-07 0 4.25196e-07 1.0 4.31999e-07 1.0 4.32749e-07 0 4.4e-07 0 4.41197e-07 1.0 4.48001e-07 1.0 4.48751e-07 0 4.71997e-07 0 4.73194e-07 1.0 4.80002e-07 1.0 4.80752e-07 0 4.88e-07 0 4.89197e-07 1.0 4.95999e-07 1.0 4.96749e-07 0 5.28003e-07 0 5.292e-07 1.0 5.35998e-07 1.0 5.36748e-07 0 5.44001e-07 0 5.45198e-07 1.0 5.52e-07 1.0 5.5275e-07 0 5.60004e-07 0 5.612e-07 1.0 5.68e-07 1.0 5.6875e-07 0 5.84001e-07 0 5.85197e-07 1.0 5.92002e-07 1.0 5.92752e-07 0 6.00001e-07 0 6.01198e-07 1.0 6.07998e-07 1.0 6.08748e-07 0 6.15999e-07 0 6.17196e-07 1.0 6.24001e-07 1.0 6.24751e-07 0 6.40001e-07 0 6.41198e-07 1.0 6.48e-07 1.0 ..)

.ends DESIGN.IO1.1_stim
