Version 4
SHEET 1 880 680
SYMBOL PowerProducts\\LT3045 -32 -272 R0
SYMATTR InstName U1
SYMBOL PowerProducts\\LT3045 -32 208 R0
SYMATTR InstName U2
