Version 4
SHEET 1 968 856
WIRE -368 -416 -864 -416
WIRE -272 -416 -368 -416
WIRE -368 -272 -368 -416
WIRE -272 -272 -368 -272
WIRE 336 -272 272 -272
WIRE 640 -272 336 -272
WIRE 816 -272 720 -272
WIRE 336 -192 336 -272
WIRE 336 -192 272 -192
WIRE -160 -80 -160 -112
WIRE -160 -80 -464 -80
WIRE -32 -64 -32 -112
WIRE 64 -64 64 -112
WIRE 64 -64 -32 -64
WIRE 64 -32 64 -64
WIRE 336 -32 336 -128
WIRE 192 0 192 -112
WIRE 512 0 192 0
WIRE -864 64 -864 -416
WIRE -640 64 -864 64
WIRE -352 64 -640 64
WIRE -272 64 -352 64
WIRE -864 208 -864 64
WIRE -352 208 -352 64
WIRE -272 208 -352 208
WIRE 336 208 272 208
WIRE 640 208 336 208
WIRE 816 208 816 -272
WIRE 816 208 720 208
WIRE 896 208 816 208
WIRE -640 224 -640 64
WIRE 336 288 336 208
WIRE 336 288 272 288
WIRE -32 400 -32 368
WIRE 64 400 64 368
WIRE 64 400 -32 400
WIRE 896 400 896 208
WIRE -464 448 -464 -80
WIRE -288 448 -464 448
WIRE -160 448 -160 368
WIRE -160 448 -288 448
WIRE 64 448 64 400
WIRE 336 448 336 352
WIRE -864 528 -864 288
WIRE -640 528 -640 288
WIRE -640 528 -864 528
WIRE 192 528 192 368
WIRE 512 528 512 0
WIRE 512 528 192 528
WIRE 896 528 896 480
WIRE 896 528 512 528
WIRE -864 560 -864 528
WIRE -160 560 -160 448
WIRE 896 560 896 528
WIRE -288 624 -288 448
WIRE -160 688 -160 640
WIRE 896 688 896 640
WIRE -288 784 -288 688
WIRE -160 784 -160 768
WIRE -160 784 -288 784
WIRE -160 816 -160 784
FLAG 64 -32 0
FLAG 64 448 0
FLAG 336 -32 0
FLAG 336 448 0
FLAG 896 688 0
FLAG -864 560 0
FLAG -160 816 0
SYMBOL PowerProducts\\LT3045 -32 -272 R0
SYMATTR InstName U1
SYMBOL PowerProducts\\LT3045 -32 208 R0
SYMATTR InstName U2
SYMBOL res 736 192 R90
WINDOW 0 0 56 VBottom 2
WINDOW 3 32 56 VTop 2
SYMATTR InstName R1
SYMATTR Value 0.1m
SYMBOL res 736 -288 R90
WINDOW 0 0 56 VBottom 2
WINDOW 3 32 56 VTop 2
SYMATTR InstName R2
SYMATTR Value 0.1m
SYMBOL cap 320 -192 R0
SYMATTR InstName C1
SYMATTR Value 44µ
SYMBOL cap 320 288 R0
SYMATTR InstName C2
SYMATTR Value 44µ
SYMBOL res 880 384 R0
SYMATTR InstName R3
SYMATTR Value 68k
SYMBOL res 880 544 R0
SYMATTR InstName R4
SYMATTR Value 3.3k
SYMBOL voltage -864 192 R0
WINDOW 123 0 0 Left 0
WINDOW 39 0 0 Left 0
SYMATTR InstName V1
SYMATTR Value SINE(7.5 100m 60k 0 0 0 1000)
SYMBOL res -176 544 R0
SYMATTR InstName R5
SYMATTR Value 34k
SYMBOL res -176 672 R0
SYMATTR InstName R6
SYMATTR Value 1k
SYMBOL cap -656 224 R0
SYMATTR InstName C3
SYMATTR Value 22µ
SYMBOL cap -304 624 R0
SYMATTR InstName C4
SYMATTR Value 22µ
TEXT -898 840 Left 2 !.tran 0 100s 0
