
.subckt DESIGN_icn_ckt 1 2 3 4 
* Display all elements first 
TidlPart_43 4 0 2 0 z0=50 Td=1e-09 R=1e-5 
TidlPart_33 3 0 1 0 z0=50 Td=1e-09 R=1e-5 
RidlPart_17 3 4 1.000000e+02
.ends DESIGN_icn_ckt
