
.subckt PMOD2BNCSIMPLE_V1_04_icn_ckt 1 2 3 
* Display all elements first 
TidlPart_41 1 0 4 0 z0=45 Td=2e-10 R=1e-5 
TidlPart_28 2 0 1 0 z0=50 Td=1e-10 R=1e-5 
TidlPart_141 3 0 4 0 z0=45 Td=2e-10 R=1e-5 
.ends PMOD2BNCSIMPLE_V1_04_icn_ckt
