
.subckt PMOD2BNCSIMPLE_V1_04_icn_ckt 1 2 
* Display all elements first 
VidlPart_24 3 0 0.000000e+00
RidlPart_13 1 3 5.000000e+01
TidlPart_11 4 0 1 0 z0=50 Td=5e-10 R=1e-5 
TidlPart_141 2 0 5 0 z0=50 Td=3e-10 R=1e-5 
NTLPMOD2BNCSIMPLE_V1_04.XSTLX2000Y7000L1X5500Y3535L1 (6 0) (4 0) 
+L=0.0581254 rlgc_name=STL_1S_1R_17 file=./ntl_rlgc.inc

NTLPMOD2BNCSIMPLE_V1_04.XSTLX5500Y3535L1X5500Y2730L1 (6 0) (5 0) 
+L=0.0020447 rlgc_name=STL_1S_1R_17 file=./ntl_rlgc.inc

.ends PMOD2BNCSIMPLE_V1_04_icn_ckt
