
.subckt PMOD2BNCSIMPLE_V1_04_icn_ckt 1 2 
* Display all elements first 
TidlPart_9 3 0 1 0 z0=40 Td=7e-10 R=1e-5 
TidlPart_13 4 0 3 0 z0=200 Td=7e-10 R=1e-5 
TidlPart_82 2 0 4 0 z0=50 Td=1e-08 R=1e-5 
.ends PMOD2BNCSIMPLE_V1_04_icn_ckt
