
*** Printing Custom Stimuli ***

.subckt PMOD2BNCSIMPLE_V1_04.J1.11_stim 5 4 3
v_5 5 3 1 (DC ..)

v_4 4 3  PWL (0 1 1.00011e-08 1.0 1.10011e-08 0 1.99999e-08 0 2.09999e-08 1.0 3.00002e-08 1.0 3.10002e-08 0 4.00004e-08 0 4.10004e-08 1.0 5.00011e-08 1.0 5.10011e-08 0 5.99983e-08 0 6.09983e-08 1.0 6.99983e-08 1.0 7.09983e-08 0 9.99983e-08 0 1.00998e-07 1.0 1.30001e-07 1.0 1.31001e-07 0 1.49998e-07 0 1.50998e-07 1.0 1.59999e-07 1.0 1.60999e-07 0 1.80004e-07 0 1.81004e-07 1.0 1.90001e-07 1.0 1.91001e-07 0 2.00001e-07 0 2.01001e-07 1.0 2.10001e-07 1.0 2.11001e-07 0 2.2e-07 0 2.21e-07 1.0 2.30001e-07 1.0 2.31001e-07 0 2.5e-07 0 2.51e-07 1.0 2.6e-07 1.0 2.61e-07 0 2.70002e-07 0 2.71002e-07 1.0 2.79999e-07 1.0 2.80999e-07 0 3.1e-07 0 3.11e-07 1.0 3.39999e-07 1.0 3.40999e-07 0 3.59999e-07 0 3.60999e-07 1.0 3.69998e-07 1.0 3.70998e-07 0 3.89998e-07 0 3.90998e-07 1.0 4e-07 1.0 4.01e-07 0 4.09999e-07 0 4.10999e-07 1.0 4.19999e-07 1.0 4.20999e-07 0 4.5e-07 0 4.51e-07 1.0 4.79999e-07 1.0 4.80999e-07 0 5e-07 0 5.01e-07 1.0 5.1e-07 1.0 5.11e-07 0 5.19999e-07 0 5.20999e-07 1.0 5.29998e-07 1.0 5.30998e-07 0 5.40002e-07 0 5.41002e-07 1.0 5.50001e-07 1.0 5.51001e-07 0 5.8e-07 0 5.81e-07 1.0 6.10002e-07 1.0 6.11002e-07 0 6.29999e-07 0 6.30999e-07 1.0 6.4e-07 1.0 6.41e-07 0 6.5e-07 0 6.51e-07 1.0 6.60002e-07 1.0 6.61002e-07 0 6.7e-07 0 6.71e-07 1.0 6.79998e-07 1.0 6.80998e-07 0 7.09997e-07 0 7.10997e-07 1.0 7.40001e-07 1.0 7.41001e-07 0 7.60003e-07 0 7.61003e-07 1.0 7.7e-07 1.0 7.71e-07 0 8.2e-07 0 8.21e-07 1.0 8.29998e-07 1.0 8.30998e-07 0 8.4e-07 0 8.41e-07 1.0 8.49998e-07 1.0 8.50998e-07 0 8.79999e-07 0 8.80999e-07 1.0 9.10004e-07 1.0 9.11004e-07 0 9.29999e-07 0 9.30999e-07 1.0 9.4e-07 1.0 9.41e-07 0 9.60002e-07 0 9.61002e-07 1.0 9.9e-07 1.0 9.91e-07 0 1.01e-06 0 1.011e-06 1.0 1.02e-06 1.0 1.021e-06 0 1.04e-06 0 1.041e-06 1.0 1.05e-06 1.0 1.051e-06 0 1.06e-06 0 1.061e-06 1.0 1.07e-06 1.0 1.071e-06 0 1.08e-06 0 1.081e-06 1.0 1.09e-06 1.0 1.091e-06 0 1.1e-06 0 1.101e-06 1.0 1.12e-06 1.0 1.121e-06 0 1.13e-06 0 1.131e-06 1.0 1.14e-06 1.0 1.141e-06 0 1.15e-06 0 1.151e-06 1.0 1.16e-06 1.0 1.161e-06 0 1.17e-06 0 1.171e-06 1.0 1.19e-06 1.0 1.191e-06 0 1.2e-06 0 1.201e-06 1.0 1.21e-06 1.0 1.211e-06 0 1.23e-06 0 1.231e-06 1.0 1.24e-06 1.0 1.241e-06 0 1.26e-06 0 1.261e-06 1.0 1.27e-06 1.0 1.271e-06 0 1.28e-06 0 1.281e-06 1.0 1.29e-06 1.0 1.291e-06 0 1.3e-06 0 1.301e-06 1.0 1.31e-06 1.0 1.311e-06 0 1.32e-06 0 1.321e-06 1.0 1.33e-06 1.0 1.331e-06 0 1.34e-06 0 1.341e-06 1.0 1.35e-06 1.0 1.351e-06 0 1.36e-06 0 1.361e-06 1.0 1.37e-06 1.0 1.371e-06 0 1.38e-06 0 1.381e-06 1.0 1.39e-06 1.0 1.391e-06 0 1.4e-06 0 1.401e-06 1.0 1.41e-06 1.0 1.411e-06 0 1.42e-06 0 1.421e-06 1.0 1.43e-06 1.0 1.431e-06 0 1.44e-06 0 1.441e-06 1.0 1.45e-06 1.0 1.451e-06 0 1.46e-06 0 1.461e-06 1.0 1.47e-06 1.0 1.471e-06 0 1.48e-06 0 1.481e-06 1.0 1.49e-06 1.0 1.491e-06 0 1.5e-06 0 1.501e-06 1.0 1.51e-06 1.0 1.511e-06 0 1.52e-06 0 1.521e-06 1.0 1.53e-06 1.0 1.531e-06 0 1.54e-06 0 1.541e-06 1.0 1.55e-06 1.0 1.551e-06 0 1.56e-06 0 1.561e-06 1.0 1.57e-06 1.0 1.571e-06 0 1.58e-06 0 1.581e-06 1.0 1.59e-06 1.0 1.591e-06 0 1.6e-06 0 1.601e-06 1.0 1.61e-06 1.0 1.611e-06 0 1.62e-06 0 1.621e-06 1.0 1.63e-06 1.0 1.631e-06 0 1.65e-06 0 1.651e-06 1.0 1.66e-06 1.0 1.661e-06 0 1.68e-06 0 1.681e-06 1.0 1.69e-06 1.0 1.691e-06 0 1.7e-06 0 1.701e-06 1.0 1.71e-06 1.0 1.711e-06 0 1.74e-06 0 1.741e-06 1.0 1.77e-06 1.0 1.771e-06 0 1.79e-06 0 1.791e-06 1.0 1.8e-06 1.0 1.801e-06 0 1.81e-06 0 1.811e-06 1.0 1.82e-06 1.0 1.821e-06 0 1.83e-06 0 1.831e-06 1.0 1.84e-06 1.0 1.841e-06 0 1.87e-06 0 1.871e-06 1.0 1.9e-06 1.0 1.901e-06 0 1.92e-06 0 1.921e-06 1.0 1.93e-06 1.0 1.931e-06 0 1.96e-06 0 1.961e-06 1.0 1.97e-06 1.0 1.971e-06 0 1.98e-06 0 1.981e-06 1.0 1.99e-06 1.0 1.991e-06 0 2e-06 0 2.001e-06 1.0 2.01e-06 1.0 2.011e-06 0 2.03e-06 0 2.031e-06 1.0 2.05e-06 1.0 ..)

.ends PMOD2BNCSIMPLE_V1_04.J1.11_stim

*** Printing Custom Stimuli ***

.subckt PMOD2BNCSIMPLE_V1_04.U1.1_stim 5 4 3
v_5 5 3 0
v_4 4 3 1
.ends PMOD2BNCSIMPLE_V1_04.U1.1_stim
