
*** Printing Custom Stimuli ***

.subckt PMOD2BNCSIMPLE_V1_04.J1.11_stim 5 4 3
v_5 5 3 1 (DC ..)

v_4 4 3  PWL (0 1 9.99916e-09 1.0 1.13982e-08 0 2.00007e-08 0 2.24105e-08 1.0 3.00028e-08 1.0 3.14018e-08 0 4.00002e-08 0 4.241e-08 1.0 5.00003e-08 1.0 5.13993e-08 0 6.00008e-08 0 6.24107e-08 1.0 7.00032e-08 1.0 7.14022e-08 0 9.99971e-08 0 1.02407e-07 1.0 1.3e-07 1.0 1.31399e-07 0 1.49999e-07 0 1.52409e-07 1.0 1.6e-07 1.0 1.61399e-07 0 1.79997e-07 0 1.82407e-07 1.0 1.89998e-07 1.0 1.91397e-07 0 1.99999e-07 0 2.02409e-07 1.0 2.10001e-07 1.0 2.114e-07 0 2.19999e-07 0 2.22409e-07 1.0 2.29999e-07 1.0 2.31398e-07 0 2.50002e-07 0 2.52411e-07 1.0 2.59999e-07 1.0 2.61398e-07 0 2.7e-07 0 2.7241e-07 1.0 2.79997e-07 1.0 2.81396e-07 0 3.1e-07 0 3.1241e-07 1.0 3.40001e-07 1.0 3.414e-07 0 3.60001e-07 0 3.62411e-07 1.0 3.69998e-07 1.0 3.71397e-07 0 3.9e-07 0 3.9241e-07 1.0 4e-07 1.0 4.01399e-07 0 4.10001e-07 0 4.12411e-07 1.0 4.19999e-07 1.0 4.21398e-07 0 4.50004e-07 0 4.52414e-07 1.0 4.8e-07 1.0 4.81399e-07 0 5.00003e-07 0 5.02413e-07 1.0 5.1e-07 1.0 5.11399e-07 0 5.20002e-07 0 5.22412e-07 1.0 5.29998e-07 1.0 5.31397e-07 0 5.40001e-07 0 5.4241e-07 1.0 5.49999e-07 1.0 5.51398e-07 0 5.79996e-07 0 5.82406e-07 1.0 6.10001e-07 1.0 6.114e-07 0 6.3e-07 0 6.3241e-07 1.0 6.4e-07 1.0 6.41399e-07 0 6.5e-07 0 6.5241e-07 1.0 6.6e-07 1.0 6.61399e-07 0 6.70001e-07 0 6.72411e-07 1.0 6.80002e-07 1.0 6.81401e-07 0 7.09999e-07 0 7.12409e-07 1.0 7.4e-07 1.0 7.41399e-07 0 7.6e-07 0 7.62409e-07 1.0 7.70001e-07 1.0 7.714e-07 0 8.20001e-07 0 8.22411e-07 1.0 8.30003e-07 1.0 8.31402e-07 0 8.39999e-07 0 8.42409e-07 1.0 8.49999e-07 1.0 8.51398e-07 0 8.8e-07 0 8.8241e-07 1.0 9.10002e-07 1.0 9.11401e-07 0 9.29999e-07 0 9.32409e-07 1.0 9.4e-07 1.0 9.41399e-07 0 9.59999e-07 0 9.62409e-07 1.0 9.90001e-07 1.0 9.914e-07 0 1.01e-06 0 1.01241e-06 1.0 1.02e-06 1.0 1.0214e-06 0 1.04e-06 0 1.04241e-06 1.0 1.05e-06 1.0 1.0514e-06 0 1.06e-06 0 1.06241e-06 1.0 1.07e-06 1.0 1.0714e-06 0 1.08e-06 0 1.08241e-06 1.0 1.09e-06 1.0 1.0914e-06 0 1.1e-06 0 1.10241e-06 1.0 1.12e-06 1.0 1.1214e-06 0 1.13e-06 0 1.13241e-06 1.0 1.14e-06 1.0 1.1414e-06 0 1.15e-06 0 1.15241e-06 1.0 1.16e-06 1.0 1.1614e-06 0 1.17e-06 0 1.17241e-06 1.0 1.19e-06 1.0 1.1914e-06 0 1.2e-06 0 1.20241e-06 1.0 1.21e-06 1.0 1.21139e-06 0 1.23e-06 0 1.23241e-06 1.0 1.24e-06 1.0 1.2414e-06 0 1.26e-06 0 1.26241e-06 1.0 1.27e-06 1.0 1.2714e-06 0 1.28e-06 0 1.28241e-06 1.0 1.29e-06 1.0 1.2914e-06 0 1.3e-06 0 1.30241e-06 1.0 1.31e-06 1.0 1.3114e-06 0 1.32e-06 0 1.32241e-06 1.0 1.33e-06 1.0 1.3314e-06 0 1.34e-06 0 1.34241e-06 1.0 1.35e-06 1.0 1.3514e-06 0 1.36e-06 0 1.36241e-06 1.0 1.37e-06 1.0 1.3714e-06 0 1.38e-06 0 1.38241e-06 1.0 1.39e-06 1.0 1.3914e-06 0 1.4e-06 0 1.40241e-06 1.0 1.41e-06 1.0 1.4114e-06 0 1.42e-06 0 1.42241e-06 1.0 1.43e-06 1.0 1.4314e-06 0 1.44e-06 0 1.44241e-06 1.0 1.45e-06 1.0 1.4514e-06 0 1.46e-06 0 1.46241e-06 1.0 1.47e-06 1.0 1.4714e-06 0 1.48e-06 0 1.48241e-06 1.0 1.49e-06 1.0 1.4914e-06 0 1.5e-06 0 1.50241e-06 1.0 1.51e-06 1.0 1.5114e-06 0 1.52e-06 0 1.52241e-06 1.0 1.53e-06 1.0 1.5314e-06 0 1.54e-06 0 1.54241e-06 1.0 1.55e-06 1.0 1.5514e-06 0 1.56e-06 0 1.56241e-06 1.0 1.57e-06 1.0 1.5714e-06 0 1.58e-06 0 1.58241e-06 1.0 1.59e-06 1.0 1.5914e-06 0 1.6e-06 0 1.60241e-06 1.0 1.61e-06 1.0 1.6114e-06 0 1.62e-06 0 1.62241e-06 1.0 1.63e-06 1.0 1.6314e-06 0 1.65e-06 0 1.65241e-06 1.0 1.66e-06 1.0 1.6614e-06 0 1.68e-06 0 1.68241e-06 1.0 1.69e-06 1.0 1.6914e-06 0 1.7e-06 0 1.70241e-06 1.0 1.71e-06 1.0 1.7114e-06 0 1.74e-06 0 1.74241e-06 1.0 1.77e-06 1.0 1.7714e-06 0 1.79e-06 0 1.79241e-06 1.0 1.8e-06 1.0 1.8014e-06 0 1.81e-06 0 1.81241e-06 1.0 1.82e-06 1.0 1.8214e-06 0 1.83e-06 0 1.83241e-06 1.0 1.84e-06 1.0 1.8414e-06 0 1.87e-06 0 1.87241e-06 1.0 1.9e-06 1.0 1.9014e-06 0 1.92e-06 0 1.92241e-06 1.0 1.93e-06 1.0 1.9314e-06 0 1.96e-06 0 1.96241e-06 1.0 1.97e-06 1.0 1.9714e-06 0 1.98e-06 0 1.98241e-06 1.0 1.99e-06 1.0 1.9914e-06 0 2e-06 0 2.00241e-06 1.0 2.01e-06 1.0 2.0114e-06 0 2.03e-06 0 2.03241e-06 1.0 2.05e-06 1.0 ..)

.ends PMOD2BNCSIMPLE_V1_04.J1.11_stim

*** Printing Custom Stimuli ***

.subckt PMOD2BNCSIMPLE_V1_04.U1.1_stim 5 4 3
v_5 5 3 0
v_4 4 3 1
.ends PMOD2BNCSIMPLE_V1_04.U1.1_stim
