
.subckt PMOD2BNCSIMPLE_V1_04.IN1.1_stim 5 4 3
v_enable_off 5 3 0
v_input_inactive 4 3 1
.ends PMOD2BNCSIMPLE_V1_04.IN1.1_stim

*** Printing Custom Stimuli ***

.subckt PMOD2BNCSIMPLE_V1_04.IO1.1_stim 5 4 3
v_5 5 3 1 (DC ..)

v_4 4 3  PWL (0 1 1.59998e-08 1.0 1.72675e-08 0 2.39997e-08 0 2.49723e-08 1.0 3.20024e-08 1.0 3.32701e-08 0 4.79995e-08 0 4.89722e-08 1.0 5.59998e-08 1.0 5.72675e-08 0 6.40011e-08 0 6.49738e-08 1.0 7.20049e-08 1.0 7.32726e-08 0 8.00031e-08 0 8.09758e-08 1.0 8.80013e-08 1.0 8.9269e-08 0 9.60004e-08 0 9.69731e-08 1.0 1.04002e-07 1.0 1.0527e-07 0 1.12e-07 0 1.12972e-07 1.0 1.20001e-07 1.0 1.21268e-07 0 1.28004e-07 0 1.28976e-07 1.0 1.36e-07 1.0 1.37268e-07 0 1.51998e-07 0 1.52971e-07 1.0 1.59999e-07 1.0 1.61266e-07 0 1.68e-07 0 1.68973e-07 1.0 1.92e-07 1.0 1.93268e-07 0 1.99998e-07 0 2.00971e-07 1.0 2.08e-07 1.0 2.09268e-07 0 2.16001e-07 0 2.16973e-07 1.0 2.32e-07 1.0 2.33267e-07 0 2.39999e-07 0 2.40972e-07 1.0 2.48e-07 1.0 2.49268e-07 0 2.64e-07 0 2.64972e-07 1.0 2.71999e-07 1.0 2.73266e-07 0 2.88e-07 0 2.88972e-07 1.0 3.04e-07 1.0 3.05268e-07 0 3.12002e-07 0 3.12975e-07 1.0 3.20002e-07 1.0 3.21269e-07 0 3.27998e-07 0 3.28971e-07 1.0 3.36003e-07 1.0 3.3727e-07 0 3.52001e-07 0 3.52974e-07 1.0 3.67998e-07 1.0 3.69266e-07 0 3.76e-07 0 3.76973e-07 1.0 3.84001e-07 1.0 3.85269e-07 0 3.92e-07 0 3.92972e-07 1.0 4.00001e-07 1.0 4.01268e-07 0 4.16e-07 0 4.16973e-07 1.0 4.31998e-07 1.0 4.33265e-07 0 4.40002e-07 0 4.40974e-07 1.0 4.63999e-07 1.0 4.65266e-07 0 4.71999e-07 0 4.72971e-07 1.0 4.88e-07 1.0 4.89267e-07 0 4.95998e-07 0 4.96971e-07 1.0 5.04001e-07 1.0 5.05269e-07 0 5.11998e-07 0 5.12971e-07 1.0 5.28002e-07 1.0 5.29269e-07 0 5.36002e-07 0 5.36975e-07 1.0 5.44001e-07 1.0 5.45269e-07 0 5.52001e-07 0 5.52974e-07 1.0 5.60001e-07 1.0 5.61269e-07 0 5.68e-07 0 5.68972e-07 1.0 5.84e-07 1.0 5.85268e-07 0 5.91999e-07 0 5.92972e-07 1.0 6.08001e-07 1.0 6.09268e-07 0 6.15998e-07 0 6.16971e-07 1.0 6.31998e-07 1.0 6.33266e-07 0 6.40002e-07 0 6.40975e-07 1.0 6.48002e-07 1.0 6.49269e-07 0 6.56001e-07 0 6.56974e-07 1.0 6.79998e-07 1.0 6.81265e-07 0 6.88e-07 0 6.88973e-07 1.0 6.96e-07 1.0 ..)

.ends PMOD2BNCSIMPLE_V1_04.IO1.1_stim
