
.subckt PMOD2BNCSIMPLE_V1_04_icn_ckt 1 2 
* Display all elements first 
TidlPart_9 2 0 1 0 z0=50 Td=3e-09 R=1e-5 
.ends PMOD2BNCSIMPLE_V1_04_icn_ckt
