
*** Printing Custom Stimuli ***

.subckt PMOD2BNCSIMPLE_V1_04.J1.11_stim 5 4 3
v_5 5 3 1 (DC ..)

v_4 4 3  PWL (0 1 7.99915e-09 1.0 8.42583e-09 0 1.59963e-08 0 1.65001e-08 1.0 2.40003e-08 1.0 2.4427e-08 0 3.20024e-08 0 3.25062e-08 1.0 3.99996e-08 1.0 4.04262e-08 0 4.80021e-08 0 4.85059e-08 1.0 5.60006e-08 1.0 5.64273e-08 0 8.00013e-08 0 8.05051e-08 1.0 1.03997e-07 1.0 1.04424e-07 0 1.19999e-07 0 1.20502e-07 1.0 1.28e-07 1.0 1.28426e-07 0 1.43999e-07 0 1.44503e-07 1.0 1.51998e-07 1.0 1.52424e-07 0 1.60002e-07 0 1.60506e-07 1.0 1.68002e-07 1.0 1.68428e-07 0 1.75999e-07 0 1.76503e-07 1.0 1.83998e-07 1.0 1.84425e-07 0 2.00001e-07 0 2.00505e-07 1.0 2.08001e-07 1.0 2.08428e-07 0 2.16002e-07 0 2.16506e-07 1.0 2.24003e-07 1.0 2.24429e-07 0 2.48e-07 0 2.48504e-07 1.0 2.71998e-07 1.0 2.72424e-07 0 2.88001e-07 0 2.88505e-07 1.0 2.95999e-07 1.0 2.96425e-07 0 3.11998e-07 0 3.12502e-07 1.0 3.19999e-07 1.0 3.20425e-07 0 3.28e-07 0 3.28504e-07 1.0 3.36e-07 1.0 3.36427e-07 0 3.59999e-07 0 3.60503e-07 1.0 3.83998e-07 1.0 3.84425e-07 0 3.99998e-07 0 4.00502e-07 1.0 4.08002e-07 1.0 4.08428e-07 0 4.16e-07 0 4.16504e-07 1.0 4.24001e-07 1.0 4.24427e-07 0 4.31998e-07 0 4.32502e-07 1.0 4.40002e-07 1.0 4.40429e-07 0 4.64e-07 0 4.64503e-07 1.0 4.88001e-07 1.0 4.88428e-07 0 5.04001e-07 0 5.04505e-07 1.0 5.11996e-07 1.0 5.12423e-07 0 5.20003e-07 0 5.20506e-07 1.0 5.27996e-07 1.0 5.28423e-07 0 5.36003e-07 0 5.36507e-07 1.0 5.43999e-07 1.0 5.44426e-07 0 5.68e-07 0 5.68504e-07 1.0 5.91998e-07 1.0 5.92425e-07 0 6.08e-07 0 6.08504e-07 1.0 6.15997e-07 1.0 6.16424e-07 0 6.56004e-07 0 6.56508e-07 1.0 6.63999e-07 1.0 6.64426e-07 0 6.72e-07 0 6.72503e-07 1.0 6.80001e-07 1.0 6.80428e-07 0 7.04e-07 0 7.04504e-07 1.0 7.27999e-07 1.0 7.28426e-07 0 7.44002e-07 0 7.44506e-07 1.0 7.52001e-07 1.0 7.52428e-07 0 7.67999e-07 0 7.68502e-07 1.0 7.92002e-07 1.0 7.92429e-07 0 8.07999e-07 0 8.08503e-07 1.0 8.15998e-07 1.0 8.16425e-07 0 8.32e-07 0 8.32504e-07 1.0 8.40001e-07 1.0 8.40428e-07 0 8.47999e-07 0 8.48503e-07 1.0 8.55998e-07 1.0 8.56424e-07 0 8.64002e-07 0 8.64506e-07 1.0 8.71998e-07 1.0 8.72425e-07 0 8.80002e-07 0 8.80505e-07 1.0 8.95998e-07 1.0 8.96425e-07 0 9.03999e-07 0 9.04502e-07 1.0 9.11998e-07 1.0 9.12425e-07 0 9.19998e-07 0 9.20502e-07 1.0 9.27999e-07 1.0 9.28426e-07 0 9.36e-07 0 9.36504e-07 1.0 9.52002e-07 1.0 9.52429e-07 0 9.59999e-07 0 9.60503e-07 1.0 9.68e-07 1.0 9.68426e-07 0 9.83999e-07 0 9.84503e-07 1.0 9.92002e-07 1.0 9.92428e-07 0 1.008e-06 0 1.0085e-06 1.0 1.016e-06 1.0 1.01643e-06 0 1.024e-06 0 1.0245e-06 1.0 1.032e-06 1.0 1.03243e-06 0 1.04e-06 0 1.0405e-06 1.0 1.048e-06 1.0 1.04843e-06 0 1.056e-06 0 1.0565e-06 1.0 1.064e-06 1.0 1.06443e-06 0 1.072e-06 0 1.07251e-06 1.0 1.08e-06 1.0 1.08043e-06 0 1.088e-06 0 1.08851e-06 1.0 1.096e-06 1.0 1.09643e-06 0 1.104e-06 0 1.1045e-06 1.0 1.112e-06 1.0 1.11243e-06 0 1.12e-06 0 1.1205e-06 1.0 1.128e-06 1.0 1.12843e-06 0 1.136e-06 0 1.13651e-06 1.0 1.144e-06 1.0 1.14443e-06 0 1.152e-06 0 1.1525e-06 1.0 1.16e-06 1.0 1.16043e-06 0 1.168e-06 0 1.1685e-06 1.0 1.176e-06 1.0 1.17642e-06 0 1.184e-06 0 1.1845e-06 1.0 1.192e-06 1.0 1.19243e-06 0 1.2e-06 0 1.2005e-06 1.0 1.208e-06 1.0 1.20843e-06 0 1.216e-06 0 1.2165e-06 1.0 1.224e-06 1.0 1.22443e-06 0 1.232e-06 0 1.2325e-06 1.0 1.24e-06 1.0 1.24043e-06 0 1.248e-06 0 1.2485e-06 1.0 1.256e-06 1.0 1.25643e-06 0 1.264e-06 0 1.26451e-06 1.0 1.272e-06 1.0 1.27243e-06 0 1.28e-06 0 1.2805e-06 1.0 1.288e-06 1.0 1.28843e-06 0 1.296e-06 0 1.2965e-06 1.0 1.304e-06 1.0 1.30443e-06 0 1.32e-06 0 1.3205e-06 1.0 1.328e-06 1.0 1.32843e-06 0 1.344e-06 0 1.34451e-06 1.0 1.352e-06 1.0 1.35243e-06 0 1.36e-06 0 1.3605e-06 1.0 1.368e-06 1.0 1.36842e-06 0 1.392e-06 0 1.3925e-06 1.0 1.416e-06 1.0 1.41643e-06 0 1.432e-06 0 1.4325e-06 1.0 1.44e-06 1.0 1.44043e-06 0 1.448e-06 0 1.44851e-06 1.0 1.456e-06 1.0 1.45643e-06 0 1.464e-06 0 1.4645e-06 1.0 1.472e-06 1.0 1.47243e-06 0 1.496e-06 0 1.4965e-06 1.0 1.52e-06 1.0 1.52043e-06 0 1.536e-06 0 1.53651e-06 1.0 1.544e-06 1.0 1.54443e-06 0 1.568e-06 0 1.5685e-06 1.0 1.576e-06 1.0 1.57643e-06 0 1.584e-06 0 1.5845e-06 1.0 1.592e-06 1.0 1.59243e-06 0 1.6e-06 0 1.6005e-06 1.0 1.608e-06 1.0 1.60843e-06 0 1.624e-06 0 1.6245e-06 1.0 1.64e-06 1.0 ..)

.ends PMOD2BNCSIMPLE_V1_04.J1.11_stim

*** Printing Custom Stimuli ***

.subckt PMOD2BNCSIMPLE_V1_04.U1.1_stim 5 4 3
v_5 5 3 0
v_4 4 3 1
.ends PMOD2BNCSIMPLE_V1_04.U1.1_stim
