
.subckt PMOD2BNCSIMPLE_V1_04_icn_ckt 1 2 
* Display all elements first 
RidlPart_78 2 3 2.000000e+01
CidlPart_7 4 5 3.000000e-11
TidlPart_9 4 0 1 0 z0=50 Td=1e-08 R=1e-5 
TidlPart_6 4 0 3 0 z0=50 Td=7e-10 R=1e-5 
VidlPart_46 5 0 0.000000e+00
.ends PMOD2BNCSIMPLE_V1_04_icn_ckt
