
*** Printing Custom Stimuli ***

.subckt DESIGN.DOUT1.1_stim 5 4 3
v_5 5 3 1
v_4 4 3  PWL (0 1 3.99955e-09 1.0 4.32989e-09 0 8.0006e-09 0 8.33827e-09 1.0 1.20001e-08 1.0 1.23304e-08 0 1.59982e-08 0 1.63359e-08 1.0 2.00003e-08 1.0 2.03306e-08 0 2.39994e-08 0 2.43371e-08 1.0 2.7999e-08 1.0 2.83293e-08 0 3.2001e-08 0 3.23387e-08 1.0 3.59997e-08 1.0 3.633e-08 0 4.00009e-08 0 4.03386e-08 1.0 4.39991e-08 1.0 4.43295e-08 0 4.79997e-08 0 4.83374e-08 1.0 5.1999e-08 1.0 5.23293e-08 0 5.59987e-08 0 5.63364e-08 1.0 6.00009e-08 1.0 6.03312e-08 0 6.39998e-08 0 6.43374e-08 1.0 6.80009e-08 1.0 6.83312e-08 0 7.20024e-08 0 7.23401e-08 1.0 7.99984e-08 1.0 8.03287e-08 0 8.40012e-08 0 8.43388e-08 1.0 8.80027e-08 1.0 8.8333e-08 0 9.19999e-08 0 9.23376e-08 1.0 9.59989e-08 1.0 9.63293e-08 0 1e-07 0 1.00338e-07 1.0 1.04003e-07 1.0 1.04334e-07 0 1.07999e-07 0 1.08336e-07 1.0 1.12e-07 1.0 1.1233e-07 0 1.16001e-07 0 1.16338e-07 1.0 1.20001e-07 1.0 1.20331e-07 0 1.24001e-07 0 1.24339e-07 1.0 1.27999e-07 1.0 1.28329e-07 0 1.31999e-07 0 1.32337e-07 1.0 1.35998e-07 1.0 1.36328e-07 0 1.40002e-07 0 1.40339e-07 1.0 1.43999e-07 1.0 1.4433e-07 0 1.48002e-07 0 1.4834e-07 1.0 1.51998e-07 1.0 1.52328e-07 0 1.55999e-07 0 1.56337e-07 1.0 1.68001e-07 1.0 1.68331e-07 0 1.71999e-07 0 1.72337e-07 1.0 1.76001e-07 1.0 1.76331e-07 0 1.80001e-07 0 1.80338e-07 1.0 1.83999e-07 1.0 1.8433e-07 0 1.88001e-07 0 1.88339e-07 1.0 2e-07 1.0 2.00331e-07 0 2.03998e-07 0 2.04336e-07 1.0 2.07999e-07 1.0 2.08329e-07 0 2.12001e-07 0 2.12339e-07 1.0 2.16001e-07 1.0 2.16331e-07 0 2.20001e-07 0 2.20339e-07 1.0 2.24e-07 1.0 2.24331e-07 0 2.28001e-07 0 2.28338e-07 1.0 2.32e-07 1.0 2.3233e-07 0 2.36001e-07 0 2.36338e-07 1.0 2.39998e-07 1.0 2.40329e-07 0 2.44e-07 0 2.44338e-07 1.0 2.48001e-07 1.0 2.48332e-07 0 2.51998e-07 0 2.52335e-07 1.0 2.60001e-07 1.0 2.60331e-07 0 2.63999e-07 0 2.64337e-07 1.0 2.68002e-07 1.0 2.68332e-07 0 2.72001e-07 0 2.72339e-07 1.0 2.76e-07 1.0 2.7633e-07 0 2.8e-07 0 2.80337e-07 1.0 2.84e-07 1.0 2.8433e-07 0 2.88002e-07 0 2.88339e-07 1.0 2.92e-07 1.0 2.9233e-07 0 2.96002e-07 0 2.96339e-07 1.0 3e-07 1.0 3.0033e-07 0 3.04e-07 0 3.04337e-07 1.0 3.08e-07 1.0 3.0833e-07 0 3.12e-07 0 3.12338e-07 1.0 3.15997e-07 1.0 3.16328e-07 0 3.2e-07 0 3.20338e-07 1.0 3.24001e-07 1.0 3.24331e-07 0 3.27998e-07 0 3.28335e-07 1.0 3.36e-07 1.0 3.36331e-07 0 3.40001e-07 0 3.40338e-07 1.0 3.44002e-07 1.0 3.44332e-07 0 3.48002e-07 0 3.48339e-07 1.0 3.51996e-07 1.0 3.52326e-07 0 3.56003e-07 0 3.56341e-07 1.0 3.6e-07 1.0 3.6033e-07 0 3.63997e-07 0 3.64334e-07 1.0 3.67998e-07 1.0 3.68328e-07 0 3.72001e-07 0 3.72339e-07 1.0 3.76e-07 1.0 3.7633e-07 0 3.79999e-07 0 3.80337e-07 1.0 3.84001e-07 1.0 3.84331e-07 0 3.87999e-07 0 3.88337e-07 1.0 3.91999e-07 1.0 3.92329e-07 0 3.96001e-07 0 3.96339e-07 1.0 4.00001e-07 1.0 4.00331e-07 0 4.04001e-07 0 4.04339e-07 1.0 4.08e-07 1.0 4.08331e-07 0 4.12e-07 0 4.12338e-07 1.0 4.24001e-07 1.0 4.24331e-07 0 4.27998e-07 0 4.28335e-07 1.0 4.31997e-07 1.0 4.32328e-07 0 4.36005e-07 0 4.36342e-07 1.0 4.40001e-07 1.0 4.40331e-07 0 4.44001e-07 0 4.44339e-07 1.0 4.55999e-07 1.0 4.56329e-07 0 4.6e-07 0 4.60338e-07 1.0 4.64e-07 1.0 4.6433e-07 0 4.68e-07 0 4.68338e-07 1.0 4.72e-07 1.0 4.72331e-07 0 4.76e-07 0 4.76338e-07 1.0 4.79998e-07 1.0 4.80328e-07 0 4.84002e-07 0 4.84339e-07 1.0 4.88002e-07 1.0 4.88332e-07 0 4.92e-07 0 4.92337e-07 1.0 4.96e-07 1.0 4.9633e-07 0 4.99995e-07 0 5.00333e-07 1.0 5.04e-07 1.0 5.0433e-07 0 5.07998e-07 0 5.08336e-07 1.0 5.15998e-07 1.0 5.16329e-07 0 5.2e-07 0 5.20337e-07 1.0 5.23999e-07 1.0 5.24329e-07 0 5.27999e-07 0 5.28337e-07 1.0 5.32e-07 1.0 5.3233e-07 0 5.35999e-07 0 5.36337e-07 1.0 5.44001e-07 1.0 5.44331e-07 0 5.47999e-07 0 5.48336e-07 1.0 5.52e-07 1.0 5.52331e-07 0 5.56001e-07 0 5.56339e-07 1.0 5.60001e-07 1.0 5.60331e-07 0 5.63998e-07 0 5.64336e-07 1.0 5.67999e-07 1.0 5.68329e-07 0 5.71999e-07 0 5.72337e-07 1.0 5.76e-07 1.0 5.7633e-07 0 5.79998e-07 0 5.80336e-07 1.0 5.83997e-07 1.0 5.84327e-07 0 5.87998e-07 0 5.88336e-07 1.0 5.92e-07 1.0 5.92331e-07 0 5.96e-07 0 5.96338e-07 1.0 5.99995e-07 1.0 6.00325e-07 0 6.03999e-07 0 6.04336e-07 1.0 6.07998e-07 1.0 6.08328e-07 0 6.12002e-07 0 6.1234e-07 1.0 6.20001e-07 1.0 6.20332e-07 0 6.24002e-07 0 6.2434e-07 1.0 6.28e-07 1.0 6.28331e-07 0 6.31999e-07 0 6.32337e-07 1.0 6.35999e-07 1.0 6.36329e-07 0 6.40001e-07 0 6.40338e-07 1.0 6.44e-07 1.0 6.4433e-07 0 6.47998e-07 0 6.48336e-07 1.0 6.51998e-07 1.0 6.52329e-07 0 6.56001e-07 0 6.56338e-07 1.0 6.60002e-07 1.0 6.60333e-07 0 6.64e-07 0 6.64338e-07 1.0 6.68002e-07 1.0 6.68332e-07 0 6.72002e-07 0 6.7234e-07 1.0 6.76e-07 1.0 6.76331e-07 0 6.80001e-07 0 6.80339e-07 1.0 6.84003e-07 1.0 6.84333e-07 0 6.88e-07 0 6.88338e-07 1.0 6.92002e-07 1.0 6.92333e-07 0 6.96001e-07 0 6.96339e-07 1.0 7.07999e-07 1.0 7.08329e-07 0 7.12001e-07 0 7.12339e-07 1.0 7.16001e-07 1.0 7.16331e-07 0 7.19998e-07 0 7.20336e-07 1.0 7.24e-07 1.0 7.2433e-07 0 7.28003e-07 0 7.28341e-07 1.0 7.40001e-07 1.0 7.40332e-07 0 7.44001e-07 0 7.44339e-07 1.0 7.48001e-07 1.0 7.48332e-07 0 7.51999e-07 0 7.52336e-07 1.0 7.56e-07 1.0 7.56331e-07 0 7.59999e-07 0 7.60337e-07 1.0 7.64003e-07 1.0 7.64334e-07 0 7.68001e-07 0 7.68339e-07 1.0 7.71998e-07 1.0 7.72328e-07 0 7.75998e-07 0 7.76335e-07 1.0 7.8e-07 1.0 7.80331e-07 0 7.83997e-07 0 7.84335e-07 1.0 7.88e-07 1.0 7.8833e-07 0 7.92001e-07 0 7.92339e-07 1.0 8e-07 1.0 8.00331e-07 0 8.03998e-07 0 8.04335e-07 1.0 8.07997e-07 1.0 8.08327e-07 0 8.11996e-07 0 8.12334e-07 1.0 8.15999e-07 1.0 8.1633e-07 0 8.20002e-07 0 8.2034e-07 1.0 8.24e-07 1.0 8.24331e-07 0 8.28001e-07 0 8.28339e-07 1.0 8.32001e-07 1.0 8.32331e-07 0 8.36001e-07 0 8.36339e-07 1.0 8.39998e-07 1.0 8.40328e-07 0 8.43998e-07 0 8.44336e-07 1.0 8.48e-07 1.0 8.48331e-07 0 8.52002e-07 0 8.5234e-07 1.0 8.55999e-07 1.0 8.5633e-07 0 8.60001e-07 0 8.60338e-07 1.0 8.64e-07 1.0 8.6433e-07 0 8.68002e-07 0 8.68339e-07 1.0 8.72001e-07 1.0 8.72331e-07 0 8.76001e-07 0 8.76339e-07 1.0 8.79999e-07 1.0 8.80329e-07 0 8.83999e-07 0 8.84337e-07 1.0 8.88e-07 1.0 8.8833e-07 0 8.92001e-07 0 8.92338e-07 1.0 8.95999e-07 1.0 8.96329e-07 0 8.99999e-07 0 9.00337e-07 1.0 9.04001e-07 1.0 9.04331e-07 0 9.08e-07 0 9.08338e-07 1.0 9.11998e-07 1.0 9.12329e-07 0 9.16e-07 0 9.16337e-07 1.0 9.23997e-07 1.0 9.24327e-07 0 9.28e-07 0 9.28337e-07 1.0 9.31999e-07 1.0 9.3233e-07 0 9.36e-07 0 9.36337e-07 1.0 9.39998e-07 1.0 9.40328e-07 0 9.44003e-07 0 9.44341e-07 1.0 9.47998e-07 1.0 9.48328e-07 0 9.52001e-07 0 9.52339e-07 1.0 9.56003e-07 1.0 9.56333e-07 0 9.6e-07 0 9.60338e-07 1.0 9.63999e-07 1.0 9.6433e-07 0 9.67999e-07 0 9.68337e-07 1.0 9.71998e-07 1.0 9.72328e-07 0 9.75998e-07 0 9.76336e-07 1.0 9.80003e-07 1.0 9.80334e-07 0 9.83999e-07 0 9.84337e-07 1.0 9.88e-07 1.0 9.8833e-07 0 9.92002e-07 0 9.92339e-07 1.0 9.96e-07 1.0 9.96331e-07 0 1e-06 0 1.00034e-06 1.0 1.012e-06 1.0 1.01233e-06 0 1.016e-06 0 1.01634e-06 1.0 1.02e-06 1.0 1.02033e-06 0 1.024e-06 0 1.02434e-06 1.0 1.028e-06 1.0 1.02833e-06 0 1.032e-06 0 1.03234e-06 1.0 1.044e-06 1.0 1.04433e-06 0 1.048e-06 0 1.04834e-06 1.0 1.052e-06 1.0 1.05233e-06 0 1.056e-06 0 1.05634e-06 1.0 1.06e-06 1.0 1.06033e-06 0 1.064e-06 0 1.06434e-06 1.0 1.068e-06 1.0 1.06833e-06 0 1.072e-06 0 1.07234e-06 1.0 1.076e-06 1.0 1.07633e-06 0 1.08e-06 0 1.08034e-06 1.0 1.084e-06 1.0 1.08433e-06 0 1.088e-06 0 1.08834e-06 1.0 1.092e-06 1.0 1.09233e-06 0 1.096e-06 0 1.09633e-06 1.0 1.104e-06 1.0 1.10433e-06 0 1.108e-06 0 1.10834e-06 1.0 1.112e-06 1.0 1.11233e-06 0 1.116e-06 0 1.11634e-06 1.0 1.12e-06 1.0 1.12033e-06 0 1.124e-06 0 1.12434e-06 1.0 1.128e-06 1.0 1.12833e-06 0 1.132e-06 0 1.13234e-06 1.0 1.136e-06 1.0 1.13633e-06 0 1.14e-06 0 1.14034e-06 1.0 1.144e-06 1.0 1.14433e-06 0 1.148e-06 0 1.14834e-06 1.0 1.156e-06 1.0 1.15633e-06 0 1.16e-06 0 1.16034e-06 1.0 1.164e-06 1.0 1.16433e-06 0 1.168e-06 0 1.16834e-06 1.0 1.172e-06 1.0 1.17233e-06 0 1.176e-06 0 1.17634e-06 1.0 1.184e-06 1.0 1.18433e-06 0 1.188e-06 0 1.18834e-06 1.0 1.192e-06 1.0 1.19233e-06 0 1.196e-06 0 1.19634e-06 1.0 1.2e-06 1.0 1.20033e-06 0 1.204e-06 0 1.20434e-06 1.0 1.208e-06 1.0 1.20833e-06 0 1.212e-06 0 1.21234e-06 1.0 1.216e-06 1.0 1.21633e-06 0 1.22e-06 0 1.22034e-06 1.0 1.224e-06 1.0 1.22433e-06 0 1.228e-06 0 1.22834e-06 1.0 1.232e-06 1.0 ..)

.ends DESIGN.DOUT1.1_stim

*** Printing Custom Stimuli ***

.subckt DESIGN.DOUT1.2_stim 5 4 3
v_5 5 3 1
v_4 4 3  PWL (0 0 3.99955e-09 0 4.33722e-09 1.0 8.0006e-09 1.0 8.33094e-09 0 1.20001e-08 0 1.23377e-08 1.0 1.59982e-08 1.0 1.63286e-08 0 2.00003e-08 0 2.03379e-08 1.0 2.39994e-08 1.0 2.43298e-08 0 2.7999e-08 0 2.83366e-08 1.0 3.2001e-08 1.0 3.23313e-08 0 3.59997e-08 0 3.63373e-08 1.0 4.00009e-08 1.0 4.03312e-08 0 4.39991e-08 0 4.43368e-08 1.0 4.79997e-08 1.0 4.83301e-08 0 5.1999e-08 0 5.23366e-08 1.0 5.59987e-08 1.0 5.63291e-08 0 6.00009e-08 0 6.03385e-08 1.0 6.39998e-08 1.0 6.43301e-08 0 6.80009e-08 0 6.83386e-08 1.0 7.20024e-08 1.0 7.23327e-08 0 7.99984e-08 0 8.03361e-08 1.0 8.40012e-08 1.0 8.43315e-08 0 8.80027e-08 0 8.83404e-08 1.0 9.19999e-08 1.0 9.23302e-08 0 9.59989e-08 0 9.63366e-08 1.0 1e-07 1.0 1.0033e-07 0 1.04003e-07 0 1.04341e-07 1.0 1.07999e-07 1.0 1.08329e-07 0 1.12e-07 0 1.12337e-07 1.0 1.16001e-07 1.0 1.16331e-07 0 1.20001e-07 0 1.20338e-07 1.0 1.24001e-07 1.0 1.24331e-07 0 1.27999e-07 0 1.28336e-07 1.0 1.31999e-07 1.0 1.3233e-07 0 1.35998e-07 0 1.36335e-07 1.0 1.40002e-07 1.0 1.40332e-07 0 1.43999e-07 0 1.44337e-07 1.0 1.48002e-07 1.0 1.48332e-07 0 1.51998e-07 0 1.52336e-07 1.0 1.55999e-07 1.0 1.5633e-07 0 1.68001e-07 0 1.68338e-07 1.0 1.71999e-07 1.0 1.72329e-07 0 1.76001e-07 0 1.76339e-07 1.0 1.80001e-07 1.0 1.80331e-07 0 1.83999e-07 0 1.84337e-07 1.0 1.88001e-07 1.0 1.88331e-07 0 2e-07 0 2.00338e-07 1.0 2.03998e-07 1.0 2.04328e-07 0 2.07999e-07 0 2.08337e-07 1.0 2.12001e-07 1.0 2.12332e-07 0 2.16001e-07 0 2.16339e-07 1.0 2.20001e-07 1.0 2.20332e-07 0 2.24e-07 0 2.24338e-07 1.0 2.28001e-07 1.0 2.28331e-07 0 2.32e-07 0 2.32338e-07 1.0 2.36001e-07 1.0 2.36331e-07 0 2.39998e-07 0 2.40336e-07 1.0 2.44e-07 1.0 2.4433e-07 0 2.48001e-07 0 2.48339e-07 1.0 2.51998e-07 1.0 2.52328e-07 0 2.60001e-07 0 2.60339e-07 1.0 2.63999e-07 1.0 2.64329e-07 0 2.68002e-07 0 2.68339e-07 1.0 2.72001e-07 1.0 2.72332e-07 0 2.76e-07 0 2.76338e-07 1.0 2.8e-07 1.0 2.8033e-07 0 2.84e-07 0 2.84338e-07 1.0 2.88002e-07 1.0 2.88332e-07 0 2.92e-07 0 2.92337e-07 1.0 2.96002e-07 1.0 2.96332e-07 0 3e-07 0 3.00337e-07 1.0 3.04e-07 1.0 3.0433e-07 0 3.08e-07 0 3.08337e-07 1.0 3.12e-07 1.0 3.12331e-07 0 3.15997e-07 0 3.16335e-07 1.0 3.2e-07 1.0 3.20331e-07 0 3.24001e-07 0 3.24338e-07 1.0 3.27998e-07 1.0 3.28328e-07 0 3.36e-07 0 3.36338e-07 1.0 3.40001e-07 1.0 3.40331e-07 0 3.44002e-07 0 3.44339e-07 1.0 3.48002e-07 1.0 3.48332e-07 0 3.51996e-07 0 3.52334e-07 1.0 3.56003e-07 1.0 3.56334e-07 0 3.6e-07 0 3.60338e-07 1.0 3.63997e-07 1.0 3.64327e-07 0 3.67998e-07 0 3.68335e-07 1.0 3.72001e-07 1.0 3.72331e-07 0 3.76e-07 0 3.76337e-07 1.0 3.79999e-07 1.0 3.8033e-07 0 3.84001e-07 0 3.84338e-07 1.0 3.87999e-07 1.0 3.88329e-07 0 3.91999e-07 0 3.92337e-07 1.0 3.96001e-07 1.0 3.96332e-07 0 4.00001e-07 0 4.00339e-07 1.0 4.04001e-07 1.0 4.04332e-07 0 4.08e-07 0 4.08338e-07 1.0 4.12e-07 1.0 4.1233e-07 0 4.24001e-07 0 4.24339e-07 1.0 4.27998e-07 1.0 4.28328e-07 0 4.31997e-07 0 4.32335e-07 1.0 4.36005e-07 1.0 4.36335e-07 0 4.40001e-07 0 4.40338e-07 1.0 4.44001e-07 1.0 4.44331e-07 0 4.55999e-07 0 4.56337e-07 1.0 4.6e-07 1.0 4.60331e-07 0 4.64e-07 0 4.64337e-07 1.0 4.68e-07 1.0 4.6833e-07 0 4.72e-07 0 4.72338e-07 1.0 4.76e-07 1.0 4.7633e-07 0 4.79998e-07 0 4.80335e-07 1.0 4.84002e-07 1.0 4.84332e-07 0 4.88002e-07 0 4.8834e-07 1.0 4.92e-07 1.0 4.9233e-07 0 4.96e-07 0 4.96338e-07 1.0 4.99995e-07 1.0 5.00326e-07 0 5.04e-07 0 5.04337e-07 1.0 5.07998e-07 1.0 5.08328e-07 0 5.15998e-07 0 5.16336e-07 1.0 5.2e-07 1.0 5.2033e-07 0 5.23999e-07 0 5.24336e-07 1.0 5.27999e-07 1.0 5.2833e-07 0 5.32e-07 0 5.32338e-07 1.0 5.35999e-07 1.0 5.36329e-07 0 5.44001e-07 0 5.44338e-07 1.0 5.47999e-07 1.0 5.48329e-07 0 5.52e-07 0 5.52338e-07 1.0 5.56001e-07 1.0 5.56332e-07 0 5.60001e-07 0 5.60338e-07 1.0 5.63998e-07 1.0 5.64328e-07 0 5.67999e-07 0 5.68337e-07 1.0 5.71999e-07 1.0 5.72329e-07 0 5.76e-07 0 5.76338e-07 1.0 5.79998e-07 1.0 5.80328e-07 0 5.83997e-07 0 5.84335e-07 1.0 5.87998e-07 1.0 5.88329e-07 0 5.92e-07 0 5.92338e-07 1.0 5.96e-07 1.0 5.96331e-07 0 5.99995e-07 0 6.00333e-07 1.0 6.03999e-07 1.0 6.04329e-07 0 6.07998e-07 0 6.08335e-07 1.0 6.12002e-07 1.0 6.12332e-07 0 6.20001e-07 0 6.20339e-07 1.0 6.24002e-07 1.0 6.24332e-07 0 6.28e-07 0 6.28338e-07 1.0 6.31999e-07 1.0 6.3233e-07 0 6.35999e-07 0 6.36337e-07 1.0 6.40001e-07 1.0 6.40331e-07 0 6.44e-07 0 6.44338e-07 1.0 6.47998e-07 1.0 6.48328e-07 0 6.51998e-07 0 6.52336e-07 1.0 6.56001e-07 1.0 6.56331e-07 0 6.60002e-07 0 6.6034e-07 1.0 6.64e-07 1.0 6.6433e-07 0 6.68002e-07 0 6.6834e-07 1.0 6.72002e-07 1.0 6.72333e-07 0 6.76e-07 0 6.76338e-07 1.0 6.80001e-07 1.0 6.80331e-07 0 6.84003e-07 0 6.8434e-07 1.0 6.88e-07 1.0 6.88331e-07 0 6.92002e-07 0 6.9234e-07 1.0 6.96001e-07 1.0 6.96332e-07 0 7.07999e-07 0 7.08337e-07 1.0 7.12001e-07 1.0 7.12331e-07 0 7.16001e-07 0 7.16339e-07 1.0 7.19998e-07 1.0 7.20328e-07 0 7.24e-07 0 7.24337e-07 1.0 7.28003e-07 1.0 7.28334e-07 0 7.40001e-07 0 7.40339e-07 1.0 7.44001e-07 1.0 7.44331e-07 0 7.48001e-07 0 7.48339e-07 1.0 7.51999e-07 1.0 7.52329e-07 0 7.56e-07 0 7.56338e-07 1.0 7.59999e-07 1.0 7.60329e-07 0 7.64003e-07 0 7.64341e-07 1.0 7.68001e-07 1.0 7.68332e-07 0 7.71998e-07 0 7.72336e-07 1.0 7.75998e-07 1.0 7.76328e-07 0 7.8e-07 0 7.80338e-07 1.0 7.83997e-07 1.0 7.84327e-07 0 7.88e-07 0 7.88337e-07 1.0 7.92001e-07 1.0 7.92331e-07 0 8e-07 0 8.00338e-07 1.0 8.03998e-07 1.0 8.04328e-07 0 8.07997e-07 0 8.08335e-07 1.0 8.11996e-07 1.0 8.12326e-07 0 8.15999e-07 0 8.16337e-07 1.0 8.20002e-07 1.0 8.20332e-07 0 8.24e-07 0 8.24338e-07 1.0 8.28001e-07 1.0 8.28331e-07 0 8.32001e-07 0 8.32338e-07 1.0 8.36001e-07 1.0 8.36331e-07 0 8.39998e-07 0 8.40335e-07 1.0 8.43998e-07 1.0 8.44329e-07 0 8.48e-07 0 8.48338e-07 1.0 8.52002e-07 1.0 8.52332e-07 0 8.55999e-07 0 8.56337e-07 1.0 8.60001e-07 1.0 8.60331e-07 0 8.64e-07 0 8.64338e-07 1.0 8.68002e-07 1.0 8.68332e-07 0 8.72001e-07 0 8.72338e-07 1.0 8.76001e-07 1.0 8.76331e-07 0 8.79999e-07 0 8.80337e-07 1.0 8.83999e-07 1.0 8.84329e-07 0 8.88e-07 0 8.88338e-07 1.0 8.92001e-07 1.0 8.92331e-07 0 8.95999e-07 0 8.96336e-07 1.0 8.99999e-07 1.0 9.0033e-07 0 9.04001e-07 0 9.04339e-07 1.0 9.08e-07 1.0 9.0833e-07 0 9.11998e-07 0 9.12336e-07 1.0 9.16e-07 1.0 9.1633e-07 0 9.23997e-07 0 9.24335e-07 1.0 9.28e-07 1.0 9.2833e-07 0 9.31999e-07 0 9.32337e-07 1.0 9.36e-07 1.0 9.3633e-07 0 9.39998e-07 0 9.40335e-07 1.0 9.44003e-07 1.0 9.44334e-07 0 9.47998e-07 0 9.48336e-07 1.0 9.52001e-07 1.0 9.52331e-07 0 9.56003e-07 0 9.5634e-07 1.0 9.6e-07 1.0 9.6033e-07 0 9.63999e-07 0 9.64337e-07 1.0 9.67999e-07 1.0 9.6833e-07 0 9.71998e-07 0 9.72336e-07 1.0 9.75998e-07 1.0 9.76328e-07 0 9.80003e-07 0 9.80341e-07 1.0 9.83999e-07 1.0 9.84329e-07 0 9.88e-07 0 9.88338e-07 1.0 9.92002e-07 1.0 9.92332e-07 0 9.96e-07 0 9.96338e-07 1.0 1e-06 1.0 1.00033e-06 0 1.012e-06 0 1.01234e-06 1.0 1.016e-06 1.0 1.01633e-06 0 1.02e-06 0 1.02034e-06 1.0 1.024e-06 1.0 1.02433e-06 0 1.028e-06 0 1.02834e-06 1.0 1.032e-06 1.0 1.03233e-06 0 1.044e-06 0 1.04434e-06 1.0 1.048e-06 1.0 1.04833e-06 0 1.052e-06 0 1.05234e-06 1.0 1.056e-06 1.0 1.05633e-06 0 1.06e-06 0 1.06034e-06 1.0 1.064e-06 1.0 1.06433e-06 0 1.068e-06 0 1.06834e-06 1.0 1.072e-06 1.0 1.07233e-06 0 1.076e-06 0 1.07634e-06 1.0 1.08e-06 1.0 1.08033e-06 0 1.084e-06 0 1.08434e-06 1.0 1.088e-06 1.0 1.08833e-06 0 1.092e-06 0 1.09234e-06 1.0 1.096e-06 1.0 1.09633e-06 0 1.104e-06 0 1.10434e-06 1.0 1.108e-06 1.0 1.10833e-06 0 1.112e-06 0 1.11234e-06 1.0 1.116e-06 1.0 1.11633e-06 0 1.12e-06 0 1.12034e-06 1.0 1.124e-06 1.0 1.12433e-06 0 1.128e-06 0 1.12834e-06 1.0 1.132e-06 1.0 1.13233e-06 0 1.136e-06 0 1.13634e-06 1.0 1.14e-06 1.0 1.14033e-06 0 1.144e-06 0 1.14434e-06 1.0 1.148e-06 1.0 1.14833e-06 0 1.156e-06 0 1.15634e-06 1.0 1.16e-06 1.0 1.16033e-06 0 1.164e-06 0 1.16434e-06 1.0 1.168e-06 1.0 1.16833e-06 0 1.172e-06 0 1.17234e-06 1.0 1.176e-06 1.0 1.17633e-06 0 1.184e-06 0 1.18434e-06 1.0 1.188e-06 1.0 1.18833e-06 0 1.192e-06 0 1.19234e-06 1.0 1.196e-06 1.0 1.19633e-06 0 1.2e-06 0 1.20034e-06 1.0 1.204e-06 1.0 1.20433e-06 0 1.208e-06 0 1.20834e-06 1.0 1.212e-06 1.0 1.21233e-06 0 1.216e-06 0 1.21634e-06 1.0 1.22e-06 1.0 1.22033e-06 0 1.224e-06 0 1.22434e-06 1.0 1.228e-06 1.0 1.22833e-06 0 1.232e-06 0.0 ..)

.ends DESIGN.DOUT1.2_stim

.subckt DESIGN.DIN1.1_stim 5 4 3
v_enable_off 5 3 0
v_input_inactive 4 3 1
.ends DESIGN.DIN1.1_stim

.subckt DESIGN.DIN1.2_stim 5 4 3
v_enable_off 5 3 0
v_input_inactive 4 3 1
.ends DESIGN.DIN1.2_stim

*** Printing Custom Stimuli ***

.subckt DESIGN.DOUT2.1_stim 5 4 3
v_5 5 3 1
v_4 4 3  PWL (0 1 3.99955e-09 1.0 4.32989e-09 0 8.0006e-09 0 8.33827e-09 1.0 1.20001e-08 1.0 1.23304e-08 0 1.59982e-08 0 1.63359e-08 1.0 2.00003e-08 1.0 2.03306e-08 0 2.39994e-08 0 2.43371e-08 1.0 2.7999e-08 1.0 2.83293e-08 0 3.2001e-08 0 3.23387e-08 1.0 3.59997e-08 1.0 3.633e-08 0 4.00009e-08 0 4.03386e-08 1.0 4.39991e-08 1.0 4.43295e-08 0 4.79997e-08 0 4.83374e-08 1.0 5.1999e-08 1.0 5.23293e-08 0 5.59987e-08 0 5.63364e-08 1.0 6.00009e-08 1.0 6.03312e-08 0 6.39998e-08 0 6.43374e-08 1.0 6.80009e-08 1.0 6.83312e-08 0 7.20024e-08 0 7.23401e-08 1.0 7.99984e-08 1.0 8.03287e-08 0 8.40012e-08 0 8.43388e-08 1.0 8.80027e-08 1.0 8.8333e-08 0 9.19999e-08 0 9.23376e-08 1.0 9.59989e-08 1.0 9.63293e-08 0 1e-07 0 1.00338e-07 1.0 1.04003e-07 1.0 1.04334e-07 0 1.07999e-07 0 1.08336e-07 1.0 1.12e-07 1.0 1.1233e-07 0 1.16001e-07 0 1.16338e-07 1.0 1.20001e-07 1.0 1.20331e-07 0 1.24001e-07 0 1.24339e-07 1.0 1.27999e-07 1.0 1.28329e-07 0 1.31999e-07 0 1.32337e-07 1.0 1.35998e-07 1.0 1.36328e-07 0 1.40002e-07 0 1.40339e-07 1.0 1.43999e-07 1.0 1.4433e-07 0 1.48002e-07 0 1.4834e-07 1.0 1.51998e-07 1.0 1.52328e-07 0 1.55999e-07 0 1.56337e-07 1.0 1.68001e-07 1.0 1.68331e-07 0 1.71999e-07 0 1.72337e-07 1.0 1.76001e-07 1.0 1.76331e-07 0 1.80001e-07 0 1.80338e-07 1.0 1.83999e-07 1.0 1.8433e-07 0 1.88001e-07 0 1.88339e-07 1.0 2e-07 1.0 2.00331e-07 0 2.03998e-07 0 2.04336e-07 1.0 2.07999e-07 1.0 2.08329e-07 0 2.12001e-07 0 2.12339e-07 1.0 2.16001e-07 1.0 2.16331e-07 0 2.20001e-07 0 2.20339e-07 1.0 2.24e-07 1.0 2.24331e-07 0 2.28001e-07 0 2.28338e-07 1.0 2.32e-07 1.0 2.3233e-07 0 2.36001e-07 0 2.36338e-07 1.0 2.39998e-07 1.0 2.40329e-07 0 2.44e-07 0 2.44338e-07 1.0 2.48001e-07 1.0 2.48332e-07 0 2.51998e-07 0 2.52335e-07 1.0 2.60001e-07 1.0 2.60331e-07 0 2.63999e-07 0 2.64337e-07 1.0 2.68002e-07 1.0 2.68332e-07 0 2.72001e-07 0 2.72339e-07 1.0 2.76e-07 1.0 2.7633e-07 0 2.8e-07 0 2.80337e-07 1.0 2.84e-07 1.0 2.8433e-07 0 2.88002e-07 0 2.88339e-07 1.0 2.92e-07 1.0 2.9233e-07 0 2.96002e-07 0 2.96339e-07 1.0 3e-07 1.0 3.0033e-07 0 3.04e-07 0 3.04337e-07 1.0 3.08e-07 1.0 3.0833e-07 0 3.12e-07 0 3.12338e-07 1.0 3.15997e-07 1.0 3.16328e-07 0 3.2e-07 0 3.20338e-07 1.0 3.24001e-07 1.0 3.24331e-07 0 3.27998e-07 0 3.28335e-07 1.0 3.36e-07 1.0 3.36331e-07 0 3.40001e-07 0 3.40338e-07 1.0 3.44002e-07 1.0 3.44332e-07 0 3.48002e-07 0 3.48339e-07 1.0 3.51996e-07 1.0 3.52326e-07 0 3.56003e-07 0 3.56341e-07 1.0 3.6e-07 1.0 3.6033e-07 0 3.63997e-07 0 3.64334e-07 1.0 3.67998e-07 1.0 3.68328e-07 0 3.72001e-07 0 3.72339e-07 1.0 3.76e-07 1.0 3.7633e-07 0 3.79999e-07 0 3.80337e-07 1.0 3.84001e-07 1.0 3.84331e-07 0 3.87999e-07 0 3.88337e-07 1.0 3.91999e-07 1.0 3.92329e-07 0 3.96001e-07 0 3.96339e-07 1.0 4.00001e-07 1.0 4.00331e-07 0 4.04001e-07 0 4.04339e-07 1.0 4.08e-07 1.0 4.08331e-07 0 4.12e-07 0 4.12338e-07 1.0 4.24001e-07 1.0 4.24331e-07 0 4.27998e-07 0 4.28335e-07 1.0 4.31997e-07 1.0 4.32328e-07 0 4.36005e-07 0 4.36342e-07 1.0 4.40001e-07 1.0 4.40331e-07 0 4.44001e-07 0 4.44339e-07 1.0 4.55999e-07 1.0 4.56329e-07 0 4.6e-07 0 4.60338e-07 1.0 4.64e-07 1.0 4.6433e-07 0 4.68e-07 0 4.68338e-07 1.0 4.72e-07 1.0 4.72331e-07 0 4.76e-07 0 4.76338e-07 1.0 4.79998e-07 1.0 4.80328e-07 0 4.84002e-07 0 4.84339e-07 1.0 4.88002e-07 1.0 4.88332e-07 0 4.92e-07 0 4.92337e-07 1.0 4.96e-07 1.0 4.9633e-07 0 4.99995e-07 0 5.00333e-07 1.0 5.04e-07 1.0 5.0433e-07 0 5.07998e-07 0 5.08336e-07 1.0 5.15998e-07 1.0 5.16329e-07 0 5.2e-07 0 5.20337e-07 1.0 5.23999e-07 1.0 5.24329e-07 0 5.27999e-07 0 5.28337e-07 1.0 5.32e-07 1.0 5.3233e-07 0 5.35999e-07 0 5.36337e-07 1.0 5.44001e-07 1.0 5.44331e-07 0 5.47999e-07 0 5.48336e-07 1.0 5.52e-07 1.0 5.52331e-07 0 5.56001e-07 0 5.56339e-07 1.0 5.60001e-07 1.0 5.60331e-07 0 5.63998e-07 0 5.64336e-07 1.0 5.67999e-07 1.0 5.68329e-07 0 5.71999e-07 0 5.72337e-07 1.0 5.76e-07 1.0 5.7633e-07 0 5.79998e-07 0 5.80336e-07 1.0 5.83997e-07 1.0 5.84327e-07 0 5.87998e-07 0 5.88336e-07 1.0 5.92e-07 1.0 5.92331e-07 0 5.96e-07 0 5.96338e-07 1.0 5.99995e-07 1.0 6.00325e-07 0 6.03999e-07 0 6.04336e-07 1.0 6.07998e-07 1.0 6.08328e-07 0 6.12002e-07 0 6.1234e-07 1.0 6.20001e-07 1.0 6.20332e-07 0 6.24002e-07 0 6.2434e-07 1.0 6.28e-07 1.0 6.28331e-07 0 6.31999e-07 0 6.32337e-07 1.0 6.35999e-07 1.0 6.36329e-07 0 6.40001e-07 0 6.40338e-07 1.0 6.44e-07 1.0 6.4433e-07 0 6.47998e-07 0 6.48336e-07 1.0 6.51998e-07 1.0 6.52329e-07 0 6.56001e-07 0 6.56338e-07 1.0 6.60002e-07 1.0 6.60333e-07 0 6.64e-07 0 6.64338e-07 1.0 6.68002e-07 1.0 6.68332e-07 0 6.72002e-07 0 6.7234e-07 1.0 6.76e-07 1.0 6.76331e-07 0 6.80001e-07 0 6.80339e-07 1.0 6.84003e-07 1.0 6.84333e-07 0 6.88e-07 0 6.88338e-07 1.0 6.92002e-07 1.0 6.92333e-07 0 6.96001e-07 0 6.96339e-07 1.0 7.07999e-07 1.0 7.08329e-07 0 7.12001e-07 0 7.12339e-07 1.0 7.16001e-07 1.0 7.16331e-07 0 7.19998e-07 0 7.20336e-07 1.0 7.24e-07 1.0 7.2433e-07 0 7.28003e-07 0 7.28341e-07 1.0 7.40001e-07 1.0 7.40332e-07 0 7.44001e-07 0 7.44339e-07 1.0 7.48001e-07 1.0 7.48332e-07 0 7.51999e-07 0 7.52336e-07 1.0 7.56e-07 1.0 7.56331e-07 0 7.59999e-07 0 7.60337e-07 1.0 7.64003e-07 1.0 7.64334e-07 0 7.68001e-07 0 7.68339e-07 1.0 7.71998e-07 1.0 7.72328e-07 0 7.75998e-07 0 7.76335e-07 1.0 7.8e-07 1.0 7.80331e-07 0 7.83997e-07 0 7.84335e-07 1.0 7.88e-07 1.0 7.8833e-07 0 7.92001e-07 0 7.92339e-07 1.0 8e-07 1.0 8.00331e-07 0 8.03998e-07 0 8.04335e-07 1.0 8.07997e-07 1.0 8.08327e-07 0 8.11996e-07 0 8.12334e-07 1.0 8.15999e-07 1.0 8.1633e-07 0 8.20002e-07 0 8.2034e-07 1.0 8.24e-07 1.0 8.24331e-07 0 8.28001e-07 0 8.28339e-07 1.0 8.32001e-07 1.0 8.32331e-07 0 8.36001e-07 0 8.36339e-07 1.0 8.39998e-07 1.0 8.40328e-07 0 8.43998e-07 0 8.44336e-07 1.0 8.48e-07 1.0 8.48331e-07 0 8.52002e-07 0 8.5234e-07 1.0 8.55999e-07 1.0 8.5633e-07 0 8.60001e-07 0 8.60338e-07 1.0 8.64e-07 1.0 8.6433e-07 0 8.68002e-07 0 8.68339e-07 1.0 8.72001e-07 1.0 8.72331e-07 0 8.76001e-07 0 8.76339e-07 1.0 8.79999e-07 1.0 8.80329e-07 0 8.83999e-07 0 8.84337e-07 1.0 8.88e-07 1.0 8.8833e-07 0 8.92001e-07 0 8.92338e-07 1.0 8.95999e-07 1.0 8.96329e-07 0 8.99999e-07 0 9.00337e-07 1.0 9.04001e-07 1.0 9.04331e-07 0 9.08e-07 0 9.08338e-07 1.0 9.11998e-07 1.0 9.12329e-07 0 9.16e-07 0 9.16337e-07 1.0 9.23997e-07 1.0 9.24327e-07 0 9.28e-07 0 9.28337e-07 1.0 9.31999e-07 1.0 9.3233e-07 0 9.36e-07 0 9.36337e-07 1.0 9.39998e-07 1.0 9.40328e-07 0 9.44003e-07 0 9.44341e-07 1.0 9.47998e-07 1.0 9.48328e-07 0 9.52001e-07 0 9.52339e-07 1.0 9.56003e-07 1.0 9.56333e-07 0 9.6e-07 0 9.60338e-07 1.0 9.63999e-07 1.0 9.6433e-07 0 9.67999e-07 0 9.68337e-07 1.0 9.71998e-07 1.0 9.72328e-07 0 9.75998e-07 0 9.76336e-07 1.0 9.80003e-07 1.0 9.80334e-07 0 9.83999e-07 0 9.84337e-07 1.0 9.88e-07 1.0 9.8833e-07 0 9.92002e-07 0 9.92339e-07 1.0 9.96e-07 1.0 9.96331e-07 0 1e-06 0 1.00034e-06 1.0 1.012e-06 1.0 1.01233e-06 0 1.016e-06 0 1.01634e-06 1.0 1.02e-06 1.0 1.02033e-06 0 1.024e-06 0 1.02434e-06 1.0 1.028e-06 1.0 1.02833e-06 0 1.032e-06 0 1.03234e-06 1.0 1.044e-06 1.0 1.04433e-06 0 1.048e-06 0 1.04834e-06 1.0 1.052e-06 1.0 1.05233e-06 0 1.056e-06 0 1.05634e-06 1.0 1.06e-06 1.0 1.06033e-06 0 1.064e-06 0 1.06434e-06 1.0 1.068e-06 1.0 1.06833e-06 0 1.072e-06 0 1.07234e-06 1.0 1.076e-06 1.0 1.07633e-06 0 1.08e-06 0 1.08034e-06 1.0 1.084e-06 1.0 1.08433e-06 0 1.088e-06 0 1.08834e-06 1.0 1.092e-06 1.0 1.09233e-06 0 1.096e-06 0 1.09633e-06 1.0 1.104e-06 1.0 1.10433e-06 0 1.108e-06 0 1.10834e-06 1.0 1.112e-06 1.0 1.11233e-06 0 1.116e-06 0 1.11634e-06 1.0 1.12e-06 1.0 1.12033e-06 0 1.124e-06 0 1.12434e-06 1.0 1.128e-06 1.0 1.12833e-06 0 1.132e-06 0 1.13234e-06 1.0 1.136e-06 1.0 1.13633e-06 0 1.14e-06 0 1.14034e-06 1.0 1.144e-06 1.0 1.14433e-06 0 1.148e-06 0 1.14834e-06 1.0 1.156e-06 1.0 1.15633e-06 0 1.16e-06 0 1.16034e-06 1.0 1.164e-06 1.0 1.16433e-06 0 1.168e-06 0 1.16834e-06 1.0 1.172e-06 1.0 1.17233e-06 0 1.176e-06 0 1.17634e-06 1.0 1.184e-06 1.0 1.18433e-06 0 1.188e-06 0 1.18834e-06 1.0 1.192e-06 1.0 1.19233e-06 0 1.196e-06 0 1.19634e-06 1.0 1.2e-06 1.0 1.20033e-06 0 1.204e-06 0 1.20434e-06 1.0 1.208e-06 1.0 1.20833e-06 0 1.212e-06 0 1.21234e-06 1.0 1.216e-06 1.0 1.21633e-06 0 1.22e-06 0 1.22034e-06 1.0 1.224e-06 1.0 1.22433e-06 0 1.228e-06 0 1.22834e-06 1.0 1.232e-06 1.0 ..)

.ends DESIGN.DOUT2.1_stim

*** Printing Custom Stimuli ***

.subckt DESIGN.DOUT2.2_stim 5 4 3
v_5 5 3 1