
*** Printing Custom Stimuli ***

.subckt PMOD2BNCSIMPLE_V1_04.J1.11_stim 5 4 3
v_5 5 3 1
v_4 4 3 PULSE (0 1 0 1e-09 1e-09 0.5 1)

.ends PMOD2BNCSIMPLE_V1_04.J1.11_stim

*** Printing Custom Stimuli ***

.subckt PMOD2BNCSIMPLE_V1_04.U1.1_stim 5 4 3
v_5 5 3 0
v_4 4 3 1
.ends PMOD2BNCSIMPLE_V1_04.U1.1_stim
